LAMMPS (2 Aug 2023 - Update 1)
# LAMMPS input script by Simon Gravelle
# This input is part of a tutorial from https://lammpstutorials.github.io
# Last tested using the 2Aug2023 stable LAMMPS version
# This file was released under the GNU general public license v3.0

# ⣿⣿⡆⠀⠀⠀⠀⠀⠀⣾⣿⣿⣆⠀⠀⠀⣿⣿⣿⣆⠀⠀⣰⣿⣿⣷⠀⢸⣿⣿⣷⡀⠀⢀⣾⣿⣿⠀⠀⣿⣿⣿⣿⣿⣷⣆⠀⢀⣶⣿⠿⠿⣿⡆⠀⠀⠀⠀⠀⠀⠀⠀⠀⢀⣀⣠⣤⣶⣿⣿⣿⣦⡄⠀⠀⠀⠀⠀⠀⠀
# ⣿⣿⡇⠀⠀⠀⠀⠀⣼⣿⡏⣿⣿⡄⠀⠀⣿⣿⡿⣿⡆⢰⣿⢿⣿⣿⠀⢸⣿⣿⢿⣧⠀⣾⡿⣿⣿⠀⠀⣿⣿⡇⠀⢈⣿⣿⠀⢸⣿⣧⣄⣀⡀⠀⠀⠀⠀⠀⠀⠀⢀⣤⣾⣿⣿⠏⣿⣿⣿⣿⣿⣿⣿⡄⠀⠀⠀⠀⠀⠀
# ⣿⣿⡇⠀⠀⠀⠀⢰⣿⣿⣀⣸⣿⣷⡀⠀⣿⣿⡇⢻⣿⣿⡏⢸⣿⣿⠀⢸⣿⣿⠘⣿⣿⡿⠁⣿⣿⠀⠀⣿⣿⡿⠿⠿⠿⠋⠀⠀⠉⠛⠻⠿⣿⣷⠀⠀⠀⠀⠀⢠⣿⣿⣿⣿⣿⡄⠻⣿⣿⣿⣿⡿⠟⣃⠀⠀⠀⠀⠀⠀
# ⣿⣿⣧⣤⣤⣤⢠⣿⣿⠛⠛⠛⢻⣿⣧⠀⣿⣿⡇⠀⠛⠛⠀⢸⣿⣿⠀⢸⣿⣿⠀⠘⠛⠃⠀⣿⣿⠀⠀⣿⣿⡇⠀⠀⠀⠀⠀⢰⣶⣤⣤⣤⣿⡿⠀⠀⠀⠀⠀⣻⣿⣿⣿⣿⣿⣿⣄⡀⠉⠉⠁⠀⢠⣿⡄⠀⠀⠀⠀⠀
# ⠉⠉⠉⠉⠉⠉⠈⠉⠁⠀⠀⠀⠀⠉⠉⠀⠉⠉⠁⠀⠀⠀⠀⠈⠉⠉⠀⠈⠉⠉⠀⠀⠀⠀⠀⠉⠉⠀⠀⠉⠉⠁⠀⠀⠀⠀⠀⠀⠉⠉⠉⠉⠉⠀⠀⠀⠀⠀⠀⣿⣿⣿⣿⣿⣿⣿⣿⣿⣷⣶⣶⣾⣿⣿⡇⠀⠀⠀⠀⠀
# ⢀⣤⠀⠀⠀⠀⠀⠀⠀⠀⠀⠀⣤⡀⠀⠀⠀⠀⠀⠀⠀⠀⠀⠀⠀⠀⠀⢰⣶⠀⠀⠀⠀⠀⠀⠀⠀⢰⡆⠀⠀⠀⠀⠀⠀⠀⠀⠀⠀⠀⠀⠀⠀⠀⠀⠀⠀⠀⠀⠘⣿⣿⣿⣿⣿⣿⣿⣿⣿⣿⣿⣿⣿⣿⡃⠀⠀⠀⠀⠀
# ⣼⣿⣴⡦⠀⣴⠀⠀⠀⣴⡄⢤⣿⣧⣶⠄⢀⣤⡶⣶⣄⠀⠀⣴⣤⣴⣦⢠⣦⠀⠀⣤⠶⢶⣤⡀⠀⢸⡇⠀⢠⣴⠶⢦⡄⠀⠀⠀⠀⠀⠀⠀⠀⠀⠀⠀⠀⠀⠀⢀⣼⣿⣿⣿⣿⣿⣿⣿⣿⣿⣿⣿⣿⣿⣿⣶⣄⠀⠀⠀
# ⢸⣿⠀⠀⠀⣿⠀⠀⠀⣿⡇⠀⣿⡆⠀⠀⣿⠇⠀⠀⢻⡇⠀⣿⡇⠀⠀⢸⣿⠀⠀⣠⣤⣤⣽⡇⠀⢸⡇⠀⢻⣧⣄⣀⠀⠀⠀⠀⠀⠀⠀⠀⠀⠀⠀⠀⣀⣀⣀⣾⣿⣿⣿⣿⣿⣿⣿⣿⣿⣿⣿⣿⣿⣿⣿⣿⣿⣧⡀⠀
# ⠸⣿⠀⠀⠀⣿⡄⠀⢀⣿⡇⠀⣿⡇⠀⠀⢿⣇⠀⢀⣼⡇⠀⣿⡇⠀⠀⢸⣿⠀⢸⣏⠀⠀⣼⡇⠀⢸⡇⠀⡀⠀⠉⢹⣷⠀⠀⠀⠀⠀⠀⠀⣀⣴⣾⣿⣿⡟⢸⣿⣿⣿⣿⣿⣿⣿⣿⣿⣿⣿⣿⣿⣿⣿⣿⣿⣿⣿⣷⠀
# ⠀⠙⠛⠛⠀⠈⠛⠛⠋⠛⠁⠀⠈⠛⠛⠃⠈⠛⠛⠛⠋⠀⠀⠛⠃⠀⠀⠘⠛⠀⠈⠛⠛⠛⠙⠃⠀⠘⠃⠀⠙⠛⠛⠛⠁⠀⠀⠀⠀⠀⢠⣾⣿⣿⣿⣿⣿⠀⣼⣿⣿⣿⣿⣿⣿⣿⣿⣿⣿⣿⣿⣿⣿⣿⣿⣿⣿⣿⣿⡇
# ⠀⠀⠀⠀⠀⠀⠀⠀⠀⠀⠀⠀⠀⠀⠀⠀⠀⠀⠀⠀⠀⠀⠀⠀⠀⠀⠀⠀⠀⠀⠀⠀⠀⠀⠀⠀⠀⠀⠀⠀⠀⠀⠀⠀⠀⠀⠀⠀⣠⣴⣿⣿⣿⣿⣿⣿⣿⡀⣿⣿⣿⣿⣿⣿⣿⣿⣿⣿⣿⣿⣿⣿⣿⣿⣿⣿⣿⣿⣿⣿
#⠀ ⠀⠀⠀⠀⠀⠀⠀⠀⠀⠀⠀⠀⠀⠀⠀⠀⠀⠀⠀⠀⠀⠀⠀⠀⠀⠀⠀⠀⠀⠀⠀⠀⠀⠀⠀⠀⠀⠀⠀⠀⠀⠀⠀⠀⠀⠀⢰⣿⣿⣿⣿⣿⣿⣿⣿⣿⡇⢻⣿⣿⣿⣿⣿⣿⣿⣿⣿⣿⣿⣿⣿⣿⣿⣿⣿⣿⣿⣿⡏
# ⠀⠀⠀⠀⠀⠀⠀⠀⠀⠀⠀⠀⠀⠀⠀⠀⠀⠀⠀⠀⠀⠀⠀⠀⠀⠀⠀⠀⠀⠀⠀⠀⠀⠀⠀⠀⠀⠀⠀⠀⠀⠀⠀⠀⠀⠀⠀⠸⣿⣿⣿⣿⣿⣿⣿⣿⣿⣿⡘⣿⣿⣿⣿⣿⡏⣼⣿⣿⣿⣿⣿⣿⣿⣿⣿⣿⣿⣿⣿⠁
# ⠀⠀⠀⠀⠀⠀⠀⠀⠀⠀⠀⠀⠀⠀⠀⠀⠀⠀⠀⠀⠀⠀⠀⠀⠀⠀⠀⠀⠀⠀⠀⠀⠀⠀⠀⠀⠀⠀⠀⠀⠀⠀⠀⠀⠀⠀⠀⠀⠨⣿⣿⣿⣿⣿⣿⣿⣿⣿⣷⡈⠻⣿⣿⣿⣇⠸⣿⣿⣿⣿⣿⣿⡿⢻⣿⣿⠿⠋⠁⠀
# ⠀⠀⠀⠀⠀⠀⠀⠀⠀⠀⠀⠀⠀⠀⠀⠀⠀⠀⠀⠀⠀⠀⠀⠀⠀⠀⠀⠀⠀⠀⠀⠀⠀⠀⠀⠀⠀⠀⠀⠀⠀⠀⠀⠀⠀⠀⠀⠀⠀⢻⣿⣿⣿⣿⣿⣿⣿⣿⣿⣷⡀⠈⠻⢿⣿⣦⣈⠙⠛⠛⠛⣁⣴⡿⠛⠁⠀⠀⠀⠀
# ⠀⠀⠀⠀⠀⠀⠀⠀⠀⠀⠀⠀⠀⠀⠀⠀⠀⠀⠀⠀⠀⠀⠀⠀⠀⠀⠀⠀⠀⠀⠀⠀⠀⠀⠀⠀⠀⠀⠀⠀⠀⠀⠀⠀⠀⠀⠀⠀⠀⠀⠻⣿⣿⣿⣿⣿⣿⣿⣿⣿⣿⣦⡀⠀⠈⠉⠛⠛⠓⠚⠋⠉⠁⠀⠀⠀⠀⠀⠀⠀
# ⠀⠀⠀⠀⠀⠀⠀⠀⠀⠀⠀⠀⠀⠀⠀⠀⠀⠀⠀⠀⠀⠀⠀⠀⠀⠀⠀⠀⠀⠀⠀⠀⠀⠀⠀⠀⠀⠀⠀⠀⠀⠀⠀⠀⠀⠀⠀⠀⠀⠀⠀⠀⠙⠻⠿⣿⣿⣿⣿⡿⠟⠋⠀

variable T equal 300

units real
atom_style molecular
boundary f f f
pair_style lj/cut 14

bond_style harmonic
angle_style harmonic
dihedral_style opls
improper_style harmonic

special_bonds lj 0.0 0.0 0.5

read_data cnt_molecular.data
Reading data file ...
  orthogonal box = (-40 -40 -12.130411) to (40 40 67.869589)
  reading atoms ...
  700 atoms
  scanning bonds ...
  scanning angles ...
  scanning dihedrals ...
  scanning impropers ...
  reading bonds ...
  1035 bonds
  reading angles ...
  2040 angles
  reading dihedrals ...
  4030 dihedrals
  reading impropers ...
  670 impropers
Finding 1-2 1-3 1-4 neighbors ...
     3 = max # of 1-2 neighbors
     6 = max # of 1-3 neighbors
    18 = max # of 1-4 neighbors
    18 = max # of special neighbors
include parm.lammps
# LAMMPS input script by Simon Gravelle
# This input is part of a tutorial from https://lammpstutorials.github.io
# Last tested using the 2Aug2023 stable LAMMPS version
# This file was released under the GNU general public license v3.0

# ⣿⣿⡆⠀⠀⠀⠀⠀⠀⣾⣿⣿⣆⠀⠀⠀⣿⣿⣿⣆⠀⠀⣰⣿⣿⣷⠀⢸⣿⣿⣷⡀⠀⢀⣾⣿⣿⠀⠀⣿⣿⣿⣿⣿⣷⣆⠀⢀⣶⣿⠿⠿⣿⡆⠀⠀⠀⠀⠀⠀⠀⠀⠀⢀⣀⣠⣤⣶⣿⣿⣿⣦⡄⠀⠀⠀⠀⠀⠀⠀
# ⣿⣿⡇⠀⠀⠀⠀⠀⣼⣿⡏⣿⣿⡄⠀⠀⣿⣿⡿⣿⡆⢰⣿⢿⣿⣿⠀⢸⣿⣿⢿⣧⠀⣾⡿⣿⣿⠀⠀⣿⣿⡇⠀⢈⣿⣿⠀⢸⣿⣧⣄⣀⡀⠀⠀⠀⠀⠀⠀⠀⢀⣤⣾⣿⣿⠏⣿⣿⣿⣿⣿⣿⣿⡄⠀⠀⠀⠀⠀⠀
# ⣿⣿⡇⠀⠀⠀⠀⢰⣿⣿⣀⣸⣿⣷⡀⠀⣿⣿⡇⢻⣿⣿⡏⢸⣿⣿⠀⢸⣿⣿⠘⣿⣿⡿⠁⣿⣿⠀⠀⣿⣿⡿⠿⠿⠿⠋⠀⠀⠉⠛⠻⠿⣿⣷⠀⠀⠀⠀⠀⢠⣿⣿⣿⣿⣿⡄⠻⣿⣿⣿⣿⡿⠟⣃⠀⠀⠀⠀⠀⠀
# ⣿⣿⣧⣤⣤⣤⢠⣿⣿⠛⠛⠛⢻⣿⣧⠀⣿⣿⡇⠀⠛⠛⠀⢸⣿⣿⠀⢸⣿⣿⠀⠘⠛⠃⠀⣿⣿⠀⠀⣿⣿⡇⠀⠀⠀⠀⠀⢰⣶⣤⣤⣤⣿⡿⠀⠀⠀⠀⠀⣻⣿⣿⣿⣿⣿⣿⣄⡀⠉⠉⠁⠀⢠⣿⡄⠀⠀⠀⠀⠀
# ⠉⠉⠉⠉⠉⠉⠈⠉⠁⠀⠀⠀⠀⠉⠉⠀⠉⠉⠁⠀⠀⠀⠀⠈⠉⠉⠀⠈⠉⠉⠀⠀⠀⠀⠀⠉⠉⠀⠀⠉⠉⠁⠀⠀⠀⠀⠀⠀⠉⠉⠉⠉⠉⠀⠀⠀⠀⠀⠀⣿⣿⣿⣿⣿⣿⣿⣿⣿⣷⣶⣶⣾⣿⣿⡇⠀⠀⠀⠀⠀
# ⢀⣤⠀⠀⠀⠀⠀⠀⠀⠀⠀⠀⣤⡀⠀⠀⠀⠀⠀⠀⠀⠀⠀⠀⠀⠀⠀⢰⣶⠀⠀⠀⠀⠀⠀⠀⠀⢰⡆⠀⠀⠀⠀⠀⠀⠀⠀⠀⠀⠀⠀⠀⠀⠀⠀⠀⠀⠀⠀⠘⣿⣿⣿⣿⣿⣿⣿⣿⣿⣿⣿⣿⣿⣿⡃⠀⠀⠀⠀⠀
# ⣼⣿⣴⡦⠀⣴⠀⠀⠀⣴⡄⢤⣿⣧⣶⠄⢀⣤⡶⣶⣄⠀⠀⣴⣤⣴⣦⢠⣦⠀⠀⣤⠶⢶⣤⡀⠀⢸⡇⠀⢠⣴⠶⢦⡄⠀⠀⠀⠀⠀⠀⠀⠀⠀⠀⠀⠀⠀⠀⢀⣼⣿⣿⣿⣿⣿⣿⣿⣿⣿⣿⣿⣿⣿⣿⣶⣄⠀⠀⠀
# ⢸⣿⠀⠀⠀⣿⠀⠀⠀⣿⡇⠀⣿⡆⠀⠀⣿⠇⠀⠀⢻⡇⠀⣿⡇⠀⠀⢸⣿⠀⠀⣠⣤⣤⣽⡇⠀⢸⡇⠀⢻⣧⣄⣀⠀⠀⠀⠀⠀⠀⠀⠀⠀⠀⠀⠀⣀⣀⣀⣾⣿⣿⣿⣿⣿⣿⣿⣿⣿⣿⣿⣿⣿⣿⣿⣿⣿⣧⡀⠀
# ⠸⣿⠀⠀⠀⣿⡄⠀⢀⣿⡇⠀⣿⡇⠀⠀⢿⣇⠀⢀⣼⡇⠀⣿⡇⠀⠀⢸⣿⠀⢸⣏⠀⠀⣼⡇⠀⢸⡇⠀⡀⠀⠉⢹⣷⠀⠀⠀⠀⠀⠀⠀⣀⣴⣾⣿⣿⡟⢸⣿⣿⣿⣿⣿⣿⣿⣿⣿⣿⣿⣿⣿⣿⣿⣿⣿⣿⣿⣷⠀
# ⠀⠙⠛⠛⠀⠈⠛⠛⠋⠛⠁⠀⠈⠛⠛⠃⠈⠛⠛⠛⠋⠀⠀⠛⠃⠀⠀⠘⠛⠀⠈⠛⠛⠛⠙⠃⠀⠘⠃⠀⠙⠛⠛⠛⠁⠀⠀⠀⠀⠀⢠⣾⣿⣿⣿⣿⣿⠀⣼⣿⣿⣿⣿⣿⣿⣿⣿⣿⣿⣿⣿⣿⣿⣿⣿⣿⣿⣿⣿⡇
# ⠀⠀⠀⠀⠀⠀⠀⠀⠀⠀⠀⠀⠀⠀⠀⠀⠀⠀⠀⠀⠀⠀⠀⠀⠀⠀⠀⠀⠀⠀⠀⠀⠀⠀⠀⠀⠀⠀⠀⠀⠀⠀⠀⠀⠀⠀⠀⠀⣠⣴⣿⣿⣿⣿⣿⣿⣿⡀⣿⣿⣿⣿⣿⣿⣿⣿⣿⣿⣿⣿⣿⣿⣿⣿⣿⣿⣿⣿⣿⣿
#⠀ ⠀⠀⠀⠀⠀⠀⠀⠀⠀⠀⠀⠀⠀⠀⠀⠀⠀⠀⠀⠀⠀⠀⠀⠀⠀⠀⠀⠀⠀⠀⠀⠀⠀⠀⠀⠀⠀⠀⠀⠀⠀⠀⠀⠀⠀⠀⢰⣿⣿⣿⣿⣿⣿⣿⣿⣿⡇⢻⣿⣿⣿⣿⣿⣿⣿⣿⣿⣿⣿⣿⣿⣿⣿⣿⣿⣿⣿⣿⡏
# ⠀⠀⠀⠀⠀⠀⠀⠀⠀⠀⠀⠀⠀⠀⠀⠀⠀⠀⠀⠀⠀⠀⠀⠀⠀⠀⠀⠀⠀⠀⠀⠀⠀⠀⠀⠀⠀⠀⠀⠀⠀⠀⠀⠀⠀⠀⠀⠸⣿⣿⣿⣿⣿⣿⣿⣿⣿⣿⡘⣿⣿⣿⣿⣿⡏⣼⣿⣿⣿⣿⣿⣿⣿⣿⣿⣿⣿⣿⣿⠁
# ⠀⠀⠀⠀⠀⠀⠀⠀⠀⠀⠀⠀⠀⠀⠀⠀⠀⠀⠀⠀⠀⠀⠀⠀⠀⠀⠀⠀⠀⠀⠀⠀⠀⠀⠀⠀⠀⠀⠀⠀⠀⠀⠀⠀⠀⠀⠀⠀⠨⣿⣿⣿⣿⣿⣿⣿⣿⣿⣷⡈⠻⣿⣿⣿⣇⠸⣿⣿⣿⣿⣿⣿⡿⢻⣿⣿⠿⠋⠁⠀
# ⠀⠀⠀⠀⠀⠀⠀⠀⠀⠀⠀⠀⠀⠀⠀⠀⠀⠀⠀⠀⠀⠀⠀⠀⠀⠀⠀⠀⠀⠀⠀⠀⠀⠀⠀⠀⠀⠀⠀⠀⠀⠀⠀⠀⠀⠀⠀⠀⠀⢻⣿⣿⣿⣿⣿⣿⣿⣿⣿⣷⡀⠈⠻⢿⣿⣦⣈⠙⠛⠛⠛⣁⣴⡿⠛⠁⠀⠀⠀⠀
# ⠀⠀⠀⠀⠀⠀⠀⠀⠀⠀⠀⠀⠀⠀⠀⠀⠀⠀⠀⠀⠀⠀⠀⠀⠀⠀⠀⠀⠀⠀⠀⠀⠀⠀⠀⠀⠀⠀⠀⠀⠀⠀⠀⠀⠀⠀⠀⠀⠀⠀⠻⣿⣿⣿⣿⣿⣿⣿⣿⣿⣿⣦⡀⠀⠈⠉⠛⠛⠓⠚⠋⠉⠁⠀⠀⠀⠀⠀⠀⠀
# ⠀⠀⠀⠀⠀⠀⠀⠀⠀⠀⠀⠀⠀⠀⠀⠀⠀⠀⠀⠀⠀⠀⠀⠀⠀⠀⠀⠀⠀⠀⠀⠀⠀⠀⠀⠀⠀⠀⠀⠀⠀⠀⠀⠀⠀⠀⠀⠀⠀⠀⠀⠀⠙⠻⠿⣿⣿⣿⣿⡿⠟⠋⠀

pair_coeff 1 1 0.066047 3.4
bond_coeff 1 469 1.4
angle_coeff 1 63 120
dihedral_coeff 1 0 7.25 0 0
improper_coeff 1 5 180

group carbon_atoms type 1
700 atoms in group carbon_atoms
variable carbon_xcm equal -1*xcm(carbon_atoms,x)
variable carbon_ycm equal -1*xcm(carbon_atoms,y)
variable carbon_zcm equal -1*xcm(carbon_atoms,z)
displace_atoms carbon_atoms move 8.45130634422529e-18 1.0914862143567e-15 -27.8695884500003
Displacing atoms ...

change_box all x final -40 40 y final -40 40 z final -40 40
Changing box ...
  orthogonal box = (-40 -40 -12.130411) to (40 40 67.869589)
  orthogonal box = (-40 -40 -12.130411) to (40 40 67.869589)
  orthogonal box = (-40 -40 -40) to (40 40 40)

variable zmax equal bound(carbon_atoms,zmax)-0.5
variable zmin equal bound(carbon_atoms,zmin)+0.5
region rtop block INF INF INF INF 27.3695895499997 INF
region rbot block INF INF INF INF INF -27.3695884500003
region rmid block INF INF INF INF -27.3695884500003 27.3695895499997

group carbon_top region rtop
10 atoms in group carbon_top
group carbon_bot region rbot
10 atoms in group carbon_bot
group carbon_mid region rmid
680 atoms in group carbon_mid

variable zmax_del equal 27.3695895499997-2
variable zmin_del equal -27.3695884500003+2
region rdel block INF INF INF INF -25.3695884500003 25.3695895499997
group rdel region rdel
630 atoms in group rdel
delete_atoms random fraction 0.02 no rdel NULL 482793 bond yes
Deleted 10 atoms, new total = 690
Deleted 30 bonds, new total = 1005
Deleted 90 angles, new total = 1950
Deleted 239 dihedrals, new total = 3791
Deleted 40 impropers, new total = 630

reset_atoms id sort yes
Generated 0 of 0 mixed pair_coeff terms from geometric mixing rule
Finding 1-2 1-3 1-4 neighbors ...
     3 = max # of 1-2 neighbors
     6 = max # of 1-3 neighbors
    18 = max # of 1-4 neighbors
    18 = max # of special neighbors
velocity carbon_mid create 300 48455 mom yes rot yes
fix mynve all nve
compute Tmid carbon_mid temp
fix myber carbon_mid temp/berendsen 300 300 100
fix_modify myber temp Tmid

fix mysf1 carbon_top setforce 0 0 0
fix mysf2 carbon_bot setforce 0 0 0
velocity carbon_top set 0 0 0
velocity carbon_bot set 0 0 0

variable L equal xcm(carbon_top,z)-xcm(carbon_bot,z)
fix at1 all ave/time 10 10 100 v_L file cnt_length.dat
fix at2 all ave/time 10 10 100 f_mysf1[1] f_mysf2[1] file edge_force.dat
dump mydmp all atom 1000 dump.lammpstrj

fix at3 all ave/time 10 10 100 c_Tmid file temperature_middle_group.dat

thermo 100
thermo_modify temp Tmid

timestep 1.0
run 5000
Generated 0 of 0 mixed pair_coeff terms from geometric mixing rule
Step          Temp          E_pair         E_mol          TotEng         Press
0   300            791.73868      2060.8801      3450.8673     -340.71736
Averages over the last 26 of 51 rows, steps 2500 to 5000:
Temp E_pair E_mol TotEng Press
297.145 590.233 2597.41 3780.2 -159.488
Loop time of 11.7223 on 1 procs for 5000 steps with 690 atoms

# 2*0.0005 A/fs = 0.001 A/fs = 100 m/s
velocity carbon_top set 0 0 0.0005
velocity carbon_bot set 0 0 -0.0005
run 10000
Generated 0 of 0 mixed pair_coeff terms from geometric mixing rule
Step          Temp          E_pair         E_mol          TotEng         Press
5000   302.56672      584.34651      2593.8614      3781.5749     -165.41272
Averages over the last 51 of 101 rows, steps 10000 to 15000:
Temp E_pair E_mol TotEng Press
301.136 441.079 9702.72 10744.3 -5005.83
Loop time of 24.4461 on 1 procs for 10000 steps with 690 atoms
